---- qbsp / ericw-tools v0.18.1 ----
Input file: CitySpawn.map
Output file: CitySpawn.bsp

---- LoadMapFile ----
           42 faces
            7 brushes
            3 entities
            3 unique texnames
            9 texinfo

Opened WAD: C:/QuakeDeve/wads/id1.wad
Opened WAD: C:/QuakeDeve/wads/id1.wad
Processing hull 0...
---- Brush_LoadEntity ----
            7 brushes
           21 planes
---- CSGFaces ----
           42 brushfaces
           50 csgfaces
           41 mergedfaces
---- SolidBSP ----
           68 split nodes
           19 solid leafs
           50 empty leafs
            0 water leafs
            0 detail leafs
            0 detail illusionary leafs
            0 detail fence leafs
            0 illusionary visblocker leafs
          303 leaffaces
          301 nodefaces
---- Portalize ----
           50 vis leafs
           50 vis clusters
          125 vis portals
---- FillOutside ----
*** WARNING 10: Reached occupant at (0 16 40), no filling performed.
Leak file written to CitySpawn.pts
---- MakeFaceEdges ----
---- GrowRegions ----
Processing hull 1...
*** WARNING 19: No entities in empty space -- no filling performed (hull 1)
Processing hull 2...
*** WARNING 19: No entities in empty space -- no filling performed (hull 2)
*** WARNING 16: Texture __TB_empty not found
---- WriteBSPFile ----
Wrote CitySpawn.bsp
           52 planes             1040
          350 vertexes           4200
           68 nodes              1632
            8 texinfo             320
          301 faces              6020
           98 clipnodes           784
           51 leafs              1428
          303 marksurfaces        606
         1204 surfedges          4816
          690 edges              2760
            3 textures          10976
              lightdata             0
              visdata               0
              entdata             208

0.121 seconds elapsed
Peak memory usage: 1082706 (1.0M)
