---- qbsp / ericw-tools v0.18.1 ----
Input file: Cuber.map
Output file: Cuber.bsp

---- LoadMapFile ----
           66 faces
           11 brushes
           78 entities
            2 unique texnames
            6 texinfo

Opened WAD: C:/QuakeDeve/wads/id1.wad
Processing hull 0...
---- Brush_LoadEntity ----
           11 brushes
           35 planes
---- CSGFaces ----
           66 brushfaces
           82 csgfaces
           71 mergedfaces
---- SolidBSP ----
          105 split nodes
           36 solid leafs
           70 empty leafs
            0 water leafs
            0 detail leafs
            0 detail illusionary leafs
            0 detail fence leafs
            0 illusionary visblocker leafs
          218 leaffaces
          209 nodefaces
---- Portalize ----
           70 vis leafs
           70 vis clusters
          165 vis portals
---- FillOutside ----
           62 outleafs
---- MergeAll ----
           22 mergefaces
---- SolidBSP ----
           17 split nodes
           12 solid leafs
            6 empty leafs
            0 water leafs
            0 detail leafs
            0 detail illusionary leafs
            0 detail fence leafs
            0 illusionary visblocker leafs
           38 leaffaces
           29 nodefaces
---- Portalize ----
            6 vis leafs
            6 vis clusters
           11 vis portals
---- Tjunc ----
           40 world edges
          111 edge points
           22 edges added by tjunctions
            0 faces added by tjunctions
---- MakeFaceEdges ----
---- GrowRegions ----
Processing hull 1...
Processing hull 2...
*** WARNING 16: Texture __TB_empty not found
---- WriteBSPFile ----
Wrote Cuber.bsp
           33 planes              660
           42 vertexes            504
           17 nodes               408
            3 texinfo             120
           29 faces               580
           36 clipnodes           288
            7 leafs               196
           38 marksurfaces         76
          138 surfedges           552
           70 edges               280
            2 textures           5492
              lightdata             0
              visdata               0
              entdata            3896

0.085 seconds elapsed
Peak memory usage: 675148 (0.6M)
