---- qbsp / ericw-tools v0.18.1 ----
Input file: undefinedsubmergedobject.map
Output file: undefinedsubmergedobject.bsp

---- LoadMapFile ----
*** WARNING 05: No info_player_start entity in level
*** WARNING 06: No info_player_deathmatch entities in level
           60 faces
           10 brushes
            2 entities
            1 unique texnames
            5 texinfo

Opened WAD: C:/QuakeDeve/wads/prototype_1_2.wad
Opened WAD: C:/QuakeDeve/wads/BIGBLUE.wad
Processing hull 0...
---- Brush_LoadEntity ----
           10 brushes
           27 planes
---- CSGFaces ----
           60 brushfaces
           58 csgfaces
           56 mergedfaces
---- SolidBSP ----
           66 split nodes
           15 solid leafs
           52 empty leafs
            0 water leafs
            0 detail leafs
            0 detail illusionary leafs
            0 detail fence leafs
            0 illusionary visblocker leafs
          343 leaffaces
          341 nodefaces
---- Portalize ----
           52 vis leafs
           52 vis clusters
          140 vis portals
---- FillOutside ----
*** WARNING 19: No entities in empty space -- no filling performed (hull 0)
---- MakeFaceEdges ----
---- GrowRegions ----
Processing hull 1...
*** WARNING 19: No entities in empty space -- no filling performed (hull 1)
Processing hull 2...
*** WARNING 19: No entities in empty space -- no filling performed (hull 2)
---- WriteBSPFile ----
Wrote undefinedsubmergedobject.bsp
           74 planes             1480
          445 vertexes           5340
           66 nodes              1584
            5 texinfo             200
          341 faces              6820
          144 clipnodes          1152
           53 leafs              1484
          343 marksurfaces        686
         1364 surfedges          5456
          837 edges              3348
            1 textures           5488
              lightdata             0
              visdata               0
              entdata             104

0.091 seconds elapsed
Peak memory usage: 1354306 (1.3M)
