---- qbsp / ericw-tools v0.18.1 ----
Input file: undefinedsubmergedobject.map
Output file: undefinedsubmergedobject.bsp

---- LoadMapFile ----
*** WARNING 06: No info_player_deathmatch entities in level
         2224 faces
          367 brushes
          388 entities
           26 unique texnames
          715 texinfo

Opened WAD: C:/QuakeDeve/wads/prototype_1_2.wad
Opened WAD: C:/QuakeDeve/wads/BIGBLUE.wad
Processing hull 0...
---- Brush_LoadEntity ----
          339 brushes
          576 planes
---- CSGFaces ----
         2056 brushfaces
         3187 csgfaces
         2649 mergedfaces
---- SolidBSP ----
         5015 split nodes
         2138 solid leafs
          766 empty leafs
         2112 water leafs
            0 detail leafs
            0 detail illusionary leafs
            0 detail fence leafs
            0 illusionary visblocker leafs
        12489 leaffaces
        11767 nodefaces
---- Portalize ----
         2878 vis leafs
         2878 vis clusters
         8752 vis portals
---- FillOutside ----
          658 outleafs
---- MergeAll ----
         2754 mergefaces
---- SolidBSP ----
         2196 split nodes
          958 solid leafs
          132 empty leafs
         1107 water leafs
            0 detail leafs
            0 detail illusionary leafs
            0 detail fence leafs
            0 illusionary visblocker leafs
         8171 leaffaces
         6959 nodefaces
---- Portalize ----
         1239 vis leafs
         1239 vis clusters
         4047 vis portals
---- Tjunc ----
         4681 world edges
        21863 edge points
         5610 edges added by tjunctions
            0 faces added by tjunctions
---- MakeFaceEdges ----
---- GrowRegions ----
Processing hull 1...
Processing hull 2...
---- WriteBSPFile ----
Wrote undefinedsubmergedobject.bsp
         1204 planes            24080
         9318 vertexes         111816
         2345 nodes             56280
          608 texinfo           24320
         6926 faces            138520
         5351 clipnodes         42808
         1379 leafs             38612
         8046 marksurfaces      16092
        32905 surfedges        131620
        16777 edges             67108
           26 textures         192908
              lightdata             0
              visdata               0
              entdata           25458

0.950 seconds elapsed
Peak memory usage: 37472252 (35.7M)
